  Page 1                                    Thu Aug  1 14:44:10 2024

  ******************************************************************
  *                           E P A N E T                          *
  *                   Hydraulic and Water Quality                  *
  *                   Analysis for Pipe Networks                   *
  *                         Version 2.3                            *
  ******************************************************************
  